data/TasNetworks - TasNetworks sourcebus_22000.trafo_75589197_75589197/Lines.dss
New Line.line_75587985_3096802_3096623 Units=km Length=0.009100000381469726 bus1=3096623.1.2.3 bus2=3096802.1.2.3 switch=n enabled=y phases=3 Linecode=3P_Code5
New Line.line_75587987_3096822_3096625 Units=km Length=0.008300000190734864 bus1=3096625.3 bus2=3096822.3 switch=n enabled=y phases=1 Linecode=1P_Code1
New Line.line_75588022_3096986_3096660 Units=km Length=0.03570000076293946 bus1=3096660.1.2.3 bus2=3096986.1.2.3 switch=n enabled=y phases=3 Linecode=3P_OH_Code8
New Line.line_75588041_3097191_3096679 Units=km Length=0.021700000762939455 bus1=3096679.1.2.3 bus2=3097191.1.2.3 switch=n enabled=y phases=3 Linecode=3P_Code0
New Line.line_75588050_3096732_3096687 Units=km Length=0.055700000762939454 bus1=3096687.1.2.3 bus2=3096732.1.2.3 switch=n enabled=y phases=3 Linecode=3P_Code0
New Line.line_75588075_3096875_3096694 Units=km Length=0.007 bus1=3096694.3 bus2=3096875.3 switch=n enabled=y phases=1 Linecode=1P_Code1
New Line.line_75588076_3096694_3096625 Units=km Length=0.0335 bus1=3096625.1.2.3 bus2=3096694.1.2.3 switch=n enabled=y phases=3 Linecode=3P_OH_Code8
New Line.line_75588083_3097146_3096715 Units=km Length=0.021500000000000002 bus1=3096715.1.2.3 bus2=3097146.1.2.3 switch=n enabled=y phases=3 Linecode=3P_OH_Code9
New Line.line_75588103_3096679_3096715 Units=km Length=0.055099998474121094 bus1=3096715.1.2.3 bus2=3096679.1.2.3 switch=n enabled=y phases=3 Linecode=3P_Code0
New Line.line_75588104_3096802_3096732 Units=km Length=0.04229999923706055 bus1=3096732.1.2.3 bus2=3096802.1.2.3 switch=n enabled=y phases=3 Linecode=3P_OH_Code3
New Line.line_75588187_3097218_3096801 Units=km Length=0.007099999904632569 bus1=3096801.1.2.3 bus2=3097218.1.2.3 switch=n enabled=y phases=3 Linecode=3P_OH_Code8
New Line.line_75588213_3097236_3096679 Units=km Length=0.0155 bus1=3096679.1 bus2=3097236.1 switch=n enabled=y phases=1 Linecode=1P_Code1
New Line.line_75588221_3097244_3096822 Units=km Length=0.012600000381469727 bus1=3096822.3 bus2=3097244.3 switch=n enabled=y phases=1 Linecode=1P_Code1
New Line.line_75588300_3097322_3096875 Units=km Length=0.019700000762939453 bus1=3096875.3 bus2=3097322.3 switch=n enabled=y phases=1 Linecode=1P_Code1
New Line.line_75588309_3097331_3096715 Units=km Length=0.026799999237060546 bus1=3096715.1 bus2=3097331.1 switch=n enabled=y phases=1 Linecode=1P_Code1
New Line.line_75588370_3097390_3096913 Units=km Length=0.009800000190734863 bus1=3096913.3 bus2=3097390.3 switch=n enabled=y phases=1 Linecode=1P_Code1
New Line.line_75588378_3097397_3096822 Units=km Length=0.014600000381469727 bus1=3096822.3 bus2=3097397.3 switch=n enabled=y phases=1 Linecode=1P_Code1
New Line.line_75588381_3097400_3096918 Units=km Length=0.014600000381469727 bus1=3096918.1 bus2=3097400.1 switch=n enabled=y phases=1 Linecode=1P_Code1
New Line.line_75588398_3097416_3096925 Units=km Length=0.03720000076293945 bus1=3096925.3 bus2=3097416.3 switch=n enabled=y phases=1 Linecode=1P_Code1
New Line.line_75588399_3097416_3096925 Units=km Length=0.03720000076293945 bus1=3096925.3 bus2=3097416.3 switch=n enabled=y phases=1 Linecode=1P_Code1
New Line.line_75588418_3097426_3096936 Units=km Length=0.014300000190734864 bus1=3096936.1 bus2=3097426.1 switch=n enabled=y phases=1 Linecode=1P_Code1
New Line.line_75588429_3097432_3096942 Units=km Length=0.010300000190734864 bus1=3096942.1.2.3 bus2=3097432.1.2.3 switch=n enabled=y phases=3 Linecode=3P_Code5
New Line.line_75588437_3097439_3096946 Units=km Length=0.04079999923706055 bus1=3096946.1.2.3 bus2=3097439.1.2.3 switch=n enabled=y phases=3 Linecode=3P_OH_Code3
New Line.line_75588443_3097022_3096942 Units=km Length=0.013100000381469726 bus1=3096942.1.2.3 bus2=3097022.1.2.3 switch=n enabled=y phases=3 Linecode=3P_Code5
New Line.line_75588446_3096694_3096952 Units=km Length=0.014800000190734864 bus1=3096952.1 bus2=3096694.1 switch=n enabled=y phases=1 Linecode=1P_Code1
New Line.line_75588509_3097022_3096679 Units=km Length=0.051000000000000004 bus1=3096679.1.2.3 bus2=3097022.1.2.3 switch=n enabled=y phases=3 Linecode=3P_OH_Code2
New Line.line_75588520_3096925_3096985 Units=km Length=0.0475 bus1=3096985.1.2.3 bus2=3096925.1.2.3 switch=n enabled=y phases=3 Linecode=3P_OH_Code8
New Line.line_75588521_3097017_3096660 Units=km Length=0.011399999618530273 bus1=3096660.2 bus2=3097017.2 switch=n enabled=y phases=1 Linecode=1P_Code1
New Line.line_75588522_3096918_3096986 Units=km Length=0.011 bus1=3096986.1 bus2=3096918.1 switch=n enabled=y phases=1 Linecode=1P_Code1
New Line.line_75588541_3097485_3096715 Units=km Length=0.021200000762939455 bus1=3096715.1 bus2=3097485.1 switch=n enabled=y phases=1 Linecode=1P_Code1
New Line.line_75588545_3097488_3096660 Units=km Length=0.024399999618530274 bus1=3096660.1 bus2=3097488.1 switch=n enabled=y phases=1 Linecode=1P_Code1
New Line.line_75588579_3097499_3097017 Units=km Length=0.016799999237060548 bus1=3097017.2 bus2=3097499.2 switch=n enabled=y phases=1 Linecode=1P_Code1
New Line.line_75588588_3097508_3096985 Units=km Length=0.02 bus1=3096985.3 bus2=3097508.3 switch=n enabled=y phases=1 Linecode=1P_Code1
New Line.line_75588589_3097508_3096985 Units=km Length=0.02 bus1=3096985.3 bus2=3097508.3 switch=n enabled=y phases=1 Linecode=1P_Code1
New Line.line_75588593_3097512_3096679 Units=km Length=0.029 bus1=3096679.2 bus2=3097512.2 switch=n enabled=y phases=1 Linecode=1P_Code1
New Line.line_75588595_3097513_3097020 Units=km Length=0.014199999809265137 bus1=3097020.2 bus2=3097513.2 switch=n enabled=y phases=1 Linecode=1P_Code1
New Line.line_75588599_3097516_3097022 Units=km Length=0.013800000190734863 bus1=3097022.3 bus2=3097516.3 switch=n enabled=y phases=1 Linecode=1P_Code1
New Line.line_75588609_3097525_3097025 Units=km Length=0.013000000000000001 bus1=3097025.1 bus2=3097525.1 switch=n enabled=y phases=1 Linecode=1P_Code1
New Line.line_75588636_3097025_3096687 Units=km Length=0.013399999618530273 bus1=3096687.1 bus2=3097025.1 switch=n enabled=y phases=1 Linecode=1P_Code1
New Line.line_75588639_3096985_3096732 Units=km Length=0.03929999923706055 bus1=3096732.1.2.3 bus2=3096985.1.2.3 switch=n enabled=y phases=3 Linecode=3P_Code0
New Line.line_75588645_3096801_3096925 Units=km Length=0.0395 bus1=3096925.1.2.3 bus2=3096801.1.2.3 switch=n enabled=y phases=3 Linecode=3P_OH_Code8
New Line.line_75588687_3097570_3096801 Units=km Length=0.027600000381469727 bus1=3096801.1 bus2=3097570.1 switch=n enabled=y phases=1 Linecode=1P_Code1
New Line.line_75588698_3097574_3097059 Units=km Length=0.014100000381469727 bus1=3097059.2 bus2=3097574.2 switch=n enabled=y phases=1 Linecode=1P_Code1
New Line.line_75588699_3097574_3097059 Units=km Length=0.014100000381469727 bus1=3097059.2 bus2=3097574.2 switch=n enabled=y phases=1 Linecode=1P_Code1
New Line.line_75588758_3096625_3096660 Units=km Length=0.0360999984741211 bus1=3096660.1.2.3 bus2=3096625.1.2.3 switch=n enabled=y phases=3 Linecode=3P_OH_Code8
New Line.line_75588788_3097628_3096875 Units=km Length=0.016399999618530274 bus1=3096875.3 bus2=3097628.3 switch=n enabled=y phases=1 Linecode=1P_Code1
New Line.line_75588828_3097649_3096660 Units=km Length=0.02 bus1=3096660.3 bus2=3097649.3 switch=n enabled=y phases=1 Linecode=1P_Code1
New Line.line_75588829_3097650_3096986 Units=km Length=0.020299999237060547 bus1=3096986.2 bus2=3097650.2 switch=n enabled=y phases=1 Linecode=1P_Code1
New Line.line_75588886_3097687_3097025 Units=km Length=0.017299999237060548 bus1=3097025.1 bus2=3097687.1 switch=n enabled=y phases=1 Linecode=1P_Code1
New Line.line_75588890_3097691_3096687 Units=km Length=0.018100000381469725 bus1=3096687.2 bus2=3097691.2 switch=n enabled=y phases=1 Linecode=1P_Code1
New Line.line_75588911_3097146_3096715 Units=km Length=0.021500000000000002 bus1=3096715.1.2.3 bus2=3097146.1.2.3 switch=n enabled=y phases=3 Linecode=3P_OH_Code9
New Line.line_75588936_3097717_3096986 Units=km Length=0.021700000762939455 bus1=3096986.2 bus2=3097717.2 switch=n enabled=y phases=1 Linecode=1P_Code1
New Line.line_75588943_3096913_3096679 Units=km Length=0.010600000381469727 bus1=3096679.3 bus2=3096913.3 switch=n enabled=y phases=1 Linecode=1P_Code1
New Line.line_75588954_3097729_3096946 Units=km Length=0.011699999809265137 bus1=3096946.1 bus2=3097729.1 switch=n enabled=y phases=1 Linecode=1P_Code1
New Line.line_75588955_3097729_3096946 Units=km Length=0.011699999809265137 bus1=3096946.1 bus2=3097729.1 switch=n enabled=y phases=1 Linecode=1P_Code1
New Line.line_75588978_3097741_3096925 Units=km Length=0.015399999618530273 bus1=3096925.1 bus2=3097741.1 switch=n enabled=y phases=1 Linecode=1P_Code1
New Line.line_75588989_3096936_3096802 Units=km Length=0.015899999618530274 bus1=3096802.1.2 bus2=3096936.1.2 switch=n enabled=y phases=2 Linecode=2P_Code6
New Line.line_75588992_3097747_3096918 Units=km Length=0.014100000381469727 bus1=3096918.1 bus2=3097747.1 switch=n enabled=y phases=1 Linecode=1P_Code1
New Line.line_75589011_3097759_3096936 Units=km Length=0.013399999618530273 bus1=3096936.1 bus2=3097759.1 switch=n enabled=y phases=1 Linecode=1P_Code1
New Line.line_75589040_3097059_3097022 Units=km Length=0.0165 bus1=3097022.1.2.3 bus2=3097059.1.2.3 switch=n enabled=y phases=3 Linecode=3P_Code5
New Line.line_75589041_3097020_3096732 Units=km Length=0.02179999923706055 bus1=3096732.2 bus2=3097020.2 switch=n enabled=y phases=1 Linecode=1P_Code1
New Line.line_75589050_3097779_3097146 Units=km Length=0.02160000038146973 bus1=3097146.1.2.3 bus2=3097779.1.2.3 switch=n enabled=y phases=3 Linecode=3P_OH_Code9
New Line.line_75589062_3097785_3096687 Units=km Length=0.023600000381469727 bus1=3096687.3 bus2=3097785.3 switch=n enabled=y phases=1 Linecode=1P_Code1
New Line.line_75589067_3097218_3096986 Units=km Length=0.043000000000000003 bus1=3096986.1.2.3 bus2=3097218.1.2.3 switch=n enabled=y phases=3 Linecode=3P_OH_Code8
New Line.line_75589078_3097153_3097022 Units=km Length=0.018899999618530273 bus1=3097022.1.2.3 bus2=3097153.1.2.3 switch=n enabled=y phases=3 Linecode=3P_OH_Code2
New Line.line_75589079_3096946_3097153 Units=km Length=0.019399999618530273 bus1=3097153.1.2.3 bus2=3096946.1.2.3 switch=n enabled=y phases=3 Linecode=3P_Code5
New Line.line_75589080_3096687_3097153 Units=km Length=0.03490000152587891 bus1=3097153.1.2.3 bus2=3096687.1.2.3 switch=n enabled=y phases=3 Linecode=3P_OH_Code2
New Line.line_75591585_3098017_3097432 Units=km Length=0.0077972685762235545 bus1=3097432.2 bus2=3098017.2 switch=n enabled=y phases=1 Linecode=1P_Code4
New Line.line_75591586_3098018_3097516 Units=km Length=0.018590322858620407 bus1=3097516.3 bus2=3098018.3 switch=n enabled=y phases=1 Linecode=1P_Code4
New Line.line_75591587_3098019_3096623 Units=km Length=0.042346552987117696 bus1=3096623.1.2.3 bus2=3098019.1.2.3 switch=n enabled=y phases=3 Linecode=3P_Code7
New Line.line_75591623_3098055_3097218 Units=km Length=0.03271674388259654 bus1=3097218.3 bus2=3098055.3 switch=n enabled=y phases=1 Linecode=1P_Code4
New Line.line_75591624_3098056_3096801 Units=km Length=0.01583316008389995 bus1=3096801.1 bus2=3098056.1 switch=n enabled=y phases=1 Linecode=1P_Code4
New Line.line_75591625_3098057_3096625 Units=km Length=0.02016409716700554 bus1=3096625.3 bus2=3098057.3 switch=n enabled=y phases=1 Linecode=1P_Code4
New Line.line_75591626_3098058_3097439 Units=km Length=0.01813393413616209 bus1=3097439.3 bus2=3098058.3 switch=n enabled=y phases=1 Linecode=1P_Code4
New Line.line_75591627_3098059_3097439 Units=km Length=0.02987297375950817 bus1=3097439.3 bus2=3098059.3 switch=n enabled=y phases=1 Linecode=1P_Code4
New Line.line_75591628_3098060_3097439 Units=km Length=0.01813393413616209 bus1=3097439.2 bus2=3098060.2 switch=n enabled=y phases=1 Linecode=1P_Code4
New Line.line_75591629_3098061_3097439 Units=km Length=0.02987297375950817 bus1=3097439.3 bus2=3098061.3 switch=n enabled=y phases=1 Linecode=1P_Code4
New Line.line_75591630_3098062_3097439 Units=km Length=0.03479738494844637 bus1=3097439.1 bus2=3098062.1 switch=n enabled=y phases=1 Linecode=1P_Code4
New Line.line_75591631_3098063_3097439 Units=km Length=0.03479738494844637 bus1=3097439.1 bus2=3098063.1 switch=n enabled=y phases=1 Linecode=1P_Code4
New Line.line_75591632_3098064_3096952 Units=km Length=0.029064378149587494 bus1=3096952.1 bus2=3098064.1 switch=n enabled=y phases=1 Linecode=1P_Code4
New Line.line_75591633_3098065_3096952 Units=km Length=0.029064378149587494 bus1=3096952.1 bus2=3098065.1 switch=n enabled=y phases=1 Linecode=1P_Code4
New Line.line_75591634_3098066_3097779 Units=km Length=0.018654892394235158 bus1=3097779.3 bus2=3098066.3 switch=n enabled=y phases=1 Linecode=1P_Code4
New Line.line_75591635_3098067_3097574 Units=km Length=0.008965894895245888 bus1=3097574.2 bus2=3098067.2 switch=n enabled=y phases=1 Linecode=1P_Code4
New Line.line_75591636_3098068_3097574 Units=km Length=0.008965894895245888 bus1=3097574.2 bus2=3098068.2 switch=n enabled=y phases=1 Linecode=1P_Code4
New Line.line_75591637_3098069_3097574 Units=km Length=0.008965894895245888 bus1=3097574.2 bus2=3098069.2 switch=n enabled=y phases=1 Linecode=1P_Code4
New Line.line_75591638_3098070_3097574 Units=km Length=0.008965894895245888 bus1=3097574.2 bus2=3098070.2 switch=n enabled=y phases=1 Linecode=1P_Code4
New Line.line_75591639_3098071_3097574 Units=km Length=0.008965894895245888 bus1=3097574.2 bus2=3098071.2 switch=n enabled=y phases=1 Linecode=1P_Code4
New Line.line_75591640_3098072_3097574 Units=km Length=0.008965894895245888 bus1=3097574.2 bus2=3098072.2 switch=n enabled=y phases=1 Linecode=1P_Code4
New Line.line_75591641_3098073_3097729 Units=km Length=0.014494363154944732 bus1=3097729.1 bus2=3098073.1 switch=n enabled=y phases=1 Linecode=1P_Code4
New Line.line_75591642_3098074_3097729 Units=km Length=0.014494363154944732 bus1=3097729.1 bus2=3098074.1 switch=n enabled=y phases=1 Linecode=1P_Code4
New Line.line_75591643_3098075_3097729 Units=km Length=0.014494363154944732 bus1=3097729.1 bus2=3098075.1 switch=n enabled=y phases=1 Linecode=1P_Code4
New Line.line_75591644_3098076_3097390 Units=km Length=0.021258494514335338 bus1=3097390.3 bus2=3098076.3 switch=n enabled=y phases=1 Linecode=1P_Code4
New Line.line_75591741_3098173_3097741 Units=km Length=0.01935751963059129 bus1=3097741.1 bus2=3098173.1 switch=n enabled=y phases=1 Linecode=1P_Code4
New Line.line_75591753_3098185_3097508 Units=km Length=0.007889327046644492 bus1=3097508.3 bus2=3098185.3 switch=n enabled=y phases=1 Linecode=1P_Code4
New Line.line_75591779_3098211_3097191 Units=km Length=0.023834020182720184 bus1=3097191.1 bus2=3098211.1 switch=n enabled=y phases=1 Linecode=1P_Code4
New Line.line_75591837_3098269_3097432 Units=km Length=0.0077972685762235545 bus1=3097432.3 bus2=3098269.3 switch=n enabled=y phases=1 Linecode=1P_Code4
New Line.line_75591857_3098289_3097508 Units=km Length=0.007889327046644492 bus1=3097508.3 bus2=3098289.3 switch=n enabled=y phases=1 Linecode=1P_Code4
New Line.line_75591903_3098335_3096732 Units=km Length=0.011275665003028009 bus1=3096732.3 bus2=3098335.3 switch=n enabled=y phases=1 Linecode=1P_Code4
New Line.line_75591904_3098336_3096623 Units=km Length=0.0235329552596859 bus1=3096623.2 bus2=3098336.2 switch=n enabled=y phases=1 Linecode=1P_Code4
New Line.line_75591946_3098378_3097512 Units=km Length=0.045608844232666985 bus1=3097512.2 bus2=3098378.2 switch=n enabled=y phases=1 Linecode=1P_Code4
New Line.line_75591990_3098422_3097432 Units=km Length=0.0077972685762235545 bus1=3097432.1 bus2=3098422.1 switch=n enabled=y phases=1 Linecode=1P_Code4
New Line.line_75592056_3098488_3097331 Units=km Length=0.027000651033817685 bus1=3097331.1 bus2=3098488.1 switch=n enabled=y phases=1 Linecode=1P_Code4
New Line.line_75592104_3098536_3097488 Units=km Length=0.013295968862261838 bus1=3097488.1 bus2=3098536.1 switch=n enabled=y phases=1 Linecode=1P_Code4
